[TITLE]
;;Project Title/Notes

[OPTIONS]
;;Option             Value
FLOW_UNITS           LPS
INFILTRATION         HORTON
FLOW_ROUTING         KINWAVE
LINK_OFFSETS         DEPTH
MIN_SLOPE            0
ALLOW_PONDING        NO
SKIP_STEADY_STATE    NO

START_DATE           06/23/2014
START_TIME           00:00:00
REPORT_START_DATE    06/23/2014
REPORT_START_TIME    00:00:00
END_DATE             06/23/2014
END_TIME             12:00:00
SWEEP_START          01/01
SWEEP_END            12/31
DRY_DAYS             0
REPORT_STEP          00:05:00
WET_STEP             00:05:00
DRY_STEP             01:00:00
ROUTING_STEP         0:01:00 

INERTIAL_DAMPING     PARTIAL
NORMAL_FLOW_LIMITED  BOTH
FORCE_MAIN_EQUATION  H-W
VARIABLE_STEP        0.75
LENGTHENING_STEP     0
MIN_SURFAREA         1.14
MAX_TRIALS           8
HEAD_TOLERANCE       0.0015
SYS_FLOW_TOL         5
LAT_FLOW_TOL         5
MINIMUM_STEP         0.5
THREADS              1

[EVAPORATION]
;;Data Source    Parameters
;;-------------- ----------------
CONSTANT         0.0
DRY_ONLY         NO

[RAINGAGES]
;;Name           Format    Interval SCF      Source    
;;-------------- --------- ------ ------ ----------
YLJ1             VOLUME    0:05     1.0      TIMESERIES SX1             
YLJ2             VOLUME    0:05     1.0      TIMESERIES SX2             
YLJ3             VOLUME    0:05     1.0      TIMESERIES SX3             

[SUBCATCHMENTS]
;;Name           Rain Gage        Outlet           Area     %Imperv  Width    %Slope   CurbLen  SnowPack        
;;-------------- ---------------- ---------------- -------- -------- -------- -------- -------- ----------------
A1               YLJ1             J14              0.32     56.8     63       0.48     0                        
A2               YLJ1             J17              0.28     65       60       0.9      0                        
A3               YLJ1             J20              0.44     65       64       0.41     0                        
A4               YLJ1             J29              0.32     55       54       0.67     0                        
A5               YLJ1             J35              0.5      65       60       1        0                        
A6               YLJ1             J36              0.65     50       50       0.78     0                        
A7               YLJ1             J31              0.69     65       67       0.54     0                        
A8               YLJ1             J27              0.67     60       64       0.86     0                        
A9               YLJ1             J22              0.57     65       60       0.7      0                        
A10              YLJ1             J2               0.30     65       63       0.7      0                        
A11              YLJ1             J13              0.50     57.65    50       0.56     0                        
A12              YLJ1             J79              0.61     48.49    40       1.1      0                        
A13              YLJ1             J23              0.60     50       55       0.79     0                        
A14              YLJ1             J24              0.56     41.11    43       1        0                        
A15              YLJ1             J6               0.71     58       56       1        0                        
A16              YLJ1             J25              0.39     41       56       0.84     0                        
A17              YLJ1             J39              0.44     30       59       0.89     0                        
A18              YLJ1             J40              0.45     45       58       0.95     0                        
A19              YLJ1             J33              0.36     57.4     45       0.82     0                        
A20              YLJ1             J32              0.63     62.1     62       0.81     0                        
A21              YLJ1             J42              0.43     59       58       0.71     0                        
A22              YLJ1             J41              0.37     37.2     68       0.69     0                        
A23              YLJ1             J26              0.64     40       48       0.69     0                        
A24              YLJ1             J69              0.39     59       60       0.68     0                        
A25              YLJ1             J71              0.75     50.8     58       0.79     0                        
A26              YLJ1             J43              0.36     65       58       0.71     0                        
A27              YLJ1             J44              0.46     55       54       0.7      0                        
A28              YLJ1             J88              0.31     56.5     68       0.78     0                        
A29              YLJ1             J68              0.54     60       60       0.8      0                        
A30              YLJ1             J70              0.74     51.5     58       0.75     0                        
A31              YLJ1             J47              0.29     65       59       0.78     0                        
A32              YLJ1             J46              0.73     58       58       0.68     0                        
A33              YLJ1             J45              0.92     63.14    63       0.68     0                        
A34              YLJ1             J8               0.71     65       51       0.71     0                        
A35              YLJ1             J91              0.58     60       63       0.73     0                        
A36              YLJ1             J9               0.89     55       52       0.72     0                        
A37              YLJ1             J49              0.31     65       64       0.58     0                        
A38              YLJ1             J48              0.25     31       45       0.59     0                        
A39              YLJ1             J50              0.65     65       60       0.61     0                        
A40              YLJ1             J56              0.58     60       40       0.58     0                        
A41              YLJ1             J53              0.96     76.4     66       0.62     0                        
A42              YLJ1             J54              0.96     50       56       0.62     0                        
A43              YLJ1             J55              0.35     47.7     40       0.6      0                        
A44              YLJ1             J59              0.56     65       78       0.821    0                        
A45              YLJ1             J57              0.45     65       63       0.842    0                        
A46              YLJ1             J63              0.69     65       50       0.84     0                        
A47              YLJ1             J67              0.92     65       60       0.851    0                        
A48              YLJ1             J62              0.81     65       67       0.864    0                        
A49              YLJ1             J60              0.54     60       54       0.813    0                        
A50              YLJ1             J64              0.23     58       60       0.38     0                        
A51              YLJ1             J95              0.29     65       65       0.36     0                        
A52              YLJ1             J65              0.39     65       60       0.34     0                        
A53              YLJ1             J66              0.34     63       70       0.46     0                        
A54              YLJ1             J58              0.80     57.6     61       0.798    0                        
A55              YLJ1             J61              0.24     65       54       0.842    0                        
A56              YLJ1             J7               0.50     65       60       1        0                        
A57              YLJ1             J30              0.40     65       50       1        0                        
A58              YLJ1             J80              0.6      48.49    50       1.1      0                        
ZHS1             YLJ1             J72              0.5      48.49    50       1.1      0                        
ZHS2             YLJ1             J74              0.51     48.49    50       1.1      0                        
ZHS3             YLJ1             J11              0.54     57.65    50       0.56     0                        
ZHS5             YLJ1             JB1              0.73     65       68       0.71     0                        
ZHS6             YLJ1             JB4              0.87     59       68       0.71     0                        
ZHS7             YLJ1             JB5              0.48     30       49       0.89     0                        
ZHS8             YLJ1             JB6              0.65     50       60       0.78     0                        
ZHS9             YLJ1             JB7              0.35     50       60       0.78     0                        
ZHS10            YLJ1             JB13             0.40     65       60       1        0                        
ZHS11            YLJ1             JB3              0.53     37.2     48       0.69     0                        
ZHS12            YLJ1             JB8              0.56     41       40       136      0                        
ZHS13            YLJ1             JB9              0.62     30       56       1        0                        
ZHS14            YLJ1             JB10             0.37     60       74       0.86     0                        
ZHS15            YLJ1             JB14             0.64     55       54       0.67     0                        
ZHS16            YLJ1             JB12             0.58     40       38       0.69     0                        
ZHS17            YLJ1             JB11             0.48     41       36       0.84     0                        
ZHS18            YLJ1             JB15             0.50     50       55       0.79     0                        
ZHS19            YLJ1             JB16             0.37     65       60       0.7      0                        
ZHS20            YLJ1             JB17             0.28     65       74       0.41     0                        
ZHS21            YLJ1             JB2              0.78     59       60       0.68     0                        
ZHS22            YLJ1             JB18             0.45     48.49    60       1.1      0                        
ZHS23            YLJ1             JB22             0.6      48.49    50       1.1      0                        
ZHS24            YLJ1             JB23             0.5      57.65    60       0.56     0                        
ZHS25            YLJ1             JB24             0.28     65       60       0.9      0                        
ZHS26            YLJ1             JB19             0.4      48.49    50       1.1      0                        
ZHS27            YLJ1             JB20             0.31     48.49    40       1.1      0                        
ZHS28            YLJ1             JB21             0.41     48.49    60       1.1      0                        
ZHS29            YLJ1             JB25             0.5      57.65    50       0.56     0                        
ZHS30            YLJ1             JB26             0.32     56.8     63       0.48     0                        
ZHS31            YLJ1             JB27             0.45     65       50       0.61     0                        
ZHS32            YLJ1             JB28             0.66     76.4     56       0.62     0                        
ZHS33            YLJ1             JB36             0.38     60       60       0.58     0                        
ZHS34            YLJ1             JB29             0.45     65       63       0.842    0                        
ZHS35            YLJ1             JB35             0.19     65       40       0.84     0                        
ZHS36            YLJ1             JB30             0.81     65       67       0.864    0                        
ZHS37            YLJ1             JB34             0.42     65       60       0.851    0                        
ZHS38            YLJ1             JB31             0.81     65       47       0.864    0                        
ZHS39            YLJ1             JB33             0.52     65       60       0.851    0                        
ZHS40            YLJ1             JB32             0.42     65       50       0.851    0                        
ZHS41            YLJ1             JB37             0.50     41       55       0.59     0                        
ZHS42            YLJ1             JB38             0.86     50       56       0.62     0                        
ZHS43            YLJ1             JB39             0.80     57.6     61       0.798    0                        
ZHS44            YLJ1             JB40             0.84     60       64       0.813    0                        
ZHS45            YLJ1             JB41             0.23     58       60       0.38     0                        

[SUBAREAS]
;;Subcatchment   N-Imperv   N-Perv     S-Imperv   S-Perv     PctZero    RouteTo    PctRouted 
;;-------------- ---------- ---------- ---------- ---------- ---------- ---------- ----------
A1               0.012      0.24       1.9        3.81       25         OUTLET    
A2               0.012      0.24       1.9        3.81       25         OUTLET    
A3               0.012      0.24       1.9        3.81       25         OUTLET    
A4               0.012      0.24       1.9        3.81       25         OUTLET    
A5               0.012      0.24       1.9        3.81       25         OUTLET    
A6               0.012      0.24       1.9        3.81       25         OUTLET    
A7               0.012      0.24       1.9        3.81       25         OUTLET    
A8               0.012      0.24       1.9        3.81       25         OUTLET    
A9               0.012      0.24       1.9        3.81       25         OUTLET    
A10              0.012      0.24       1.9        3.81       25         OUTLET    
A11              0.012      0.24       1.9        3.81       25         OUTLET    
A12              0.012      0.24       1.9        3.81       25         OUTLET    
A13              0.012      0.24       1.9        3.81       25         OUTLET    
A14              0.012      0.24       1.9        3.81       25         OUTLET    
A15              0.012      0.24       1.9        3.81       25         OUTLET    
A16              0.012      0.24       1.9        3.81       25         OUTLET    
A17              0.012      0.24       1.9        3.81       25         OUTLET    
A18              0.012      0.24       1.9        3.81       25         OUTLET    
A19              0.012      0.24       1.9        3.81       25         OUTLET    
A20              0.012      0.24       1.9        3.81       25         OUTLET    
A21              0.012      0.24       1.9        3.81       25         OUTLET    
A22              0.012      0.24       1.9        3.81       25         OUTLET    
A23              0.012      0.24       1.9        3.81       25         OUTLET    
A24              0.012      0.24       1.9        3.81       25         OUTLET    
A25              0.012      0.24       1.9        3.81       25         OUTLET    
A26              0.012      0.24       1.9        3.81       25         OUTLET    
A27              0.012      0.24       1.9        3.81       25         OUTLET    
A28              0.012      0.24       1.9        3.81       25         OUTLET    
A29              0.012      0.24       1.9        3.81       25         OUTLET    
A30              0.012      0.24       1.9        3.81       25         OUTLET    
A31              0.012      0.24       1.9        3.81       25         OUTLET    
A32              0.012      0.24       1.9        3.81       25         OUTLET    
A33              0.012      0.24       1.9        3.81       25         OUTLET    
A34              0.012      0.24       1.9        3.81       25         OUTLET    
A35              0.012      0.24       1.9        3.81       25         OUTLET    
A36              0.012      0.24       1.9        3.81       25         OUTLET    
A37              0.012      0.24       1.9        3.81       25         OUTLET    
A38              0.012      0.24       1.9        3.81       25         OUTLET    
A39              0.012      0.24       1.9        3.81       25         OUTLET    
A40              0.012      0.24       1.9        3.81       25         OUTLET    
A41              0.012      0.24       1.9        3.81       25         OUTLET    
A42              0.012      0.24       1.9        3.81       25         OUTLET    
A43              0.012      0.24       1.9        3.81       25         OUTLET    
A44              0.012      0.24       1.9        3.81       25         OUTLET    
A45              0.012      0.24       1.9        3.81       25         OUTLET    
A46              0.012      0.24       1.9        3.81       25         OUTLET    
A47              0.012      0.24       1.9        3.81       25         OUTLET    
A48              0.012      0.24       1.9        3.81       25         OUTLET    
A49              0.012      0.24       1.9        3.81       25         OUTLET    
A50              0.012      0.24       1.9        3.81       25         OUTLET    
A51              0.012      0.24       1.9        3.81       25         OUTLET    
A52              0.012      0.24       1.9        3.81       25         OUTLET    
A53              0.012      0.24       1.9        3.81       25         OUTLET    
A54              0.012      0.24       1.9        3.81       25         OUTLET    
A55              0.012      0.24       1.9        3.81       25         OUTLET    
A56              0.012      0.24       1.9        3.81       25         OUTLET    
A57              0.012      0.24       1.9        3.81       25         OUTLET    
A58              0.012      0.24       1.9        3.81       25         OUTLET    
ZHS1             0.012      0.24       1.9        3.81       25         OUTLET    
ZHS2             0.012      0.24       1.9        3.81       25         OUTLET    
ZHS3             0.012      0.24       1.9        3.81       25         OUTLET    
ZHS5             0.012      0.24       1.9        3.81       25         OUTLET    
ZHS6             0.012      0.24       1.9        3.81       25         OUTLET    
ZHS7             0.012      0.24       1.9        3.81       25         OUTLET    
ZHS8             0.012      0.24       1.9        3.81       25         OUTLET    
ZHS9             0.012      0.24       1.9        3.81       25         OUTLET    
ZHS10            0.012      0.24       1.9        3.81       25         OUTLET    
ZHS11            0.012      0.24       1.9        3.81       25         OUTLET    
ZHS12            0.012      0.24       1.9        3.81       25         OUTLET    
ZHS13            0.012      0.24       1.9        3.81       25         OUTLET    
ZHS14            0.012      0.24       1.9        3.81       25         OUTLET    
ZHS15            0.012      0.24       1.9        3.81       25         OUTLET    
ZHS16            0.012      0.24       1.9        3.81       25         OUTLET    
ZHS17            0.012      0.24       1.9        3.81       25         OUTLET    
ZHS18            0.012      0.24       1.9        3.81       25         OUTLET    
ZHS19            0.012      0.24       1.9        3.81       25         OUTLET    
ZHS20            0.012      0.24       1.9        3.81       25         OUTLET    
ZHS21            0.012      0.24       1.9        3.81       25         OUTLET    
ZHS22            0.012      0.24       1.9        3.81       25         OUTLET    
ZHS23            0.012      0.24       1.9        3.81       25         OUTLET    
ZHS24            0.012      0.24       1.9        3.81       25         OUTLET    
ZHS25            0.012      0.24       1.9        3.81       25         OUTLET    
ZHS26            0.012      0.24       1.9        3.81       25         OUTLET    
ZHS27            0.012      0.24       1.9        3.81       25         OUTLET    
ZHS28            0.012      0.24       1.9        3.81       25         OUTLET    
ZHS29            0.012      0.24       1.9        3.81       25         OUTLET    
ZHS30            0.012      0.24       1.9        3.81       25         OUTLET    
ZHS31            0.012      0.24       1.9        3.81       25         OUTLET    
ZHS32            0.012      0.24       1.9        3.81       25         OUTLET    
ZHS33            0.012      0.24       1.9        3.81       25         OUTLET    
ZHS34            0.012      0.24       1.9        3.81       25         OUTLET    
ZHS35            0.012      0.24       1.9        3.81       25         OUTLET    
ZHS36            0.012      0.24       1.9        3.81       25         OUTLET    
ZHS37            0.012      0.24       1.9        3.81       25         OUTLET    
ZHS38            0.012      0.24       1.9        3.81       25         OUTLET    
ZHS39            0.012      0.24       1.9        3.81       25         OUTLET    
ZHS40            0.012      0.24       1.9        3.81       25         OUTLET    
ZHS41            0.012      0.24       1.9        3.81       25         OUTLET    
ZHS42            0.012      0.24       1.9        3.81       25         OUTLET    
ZHS43            0.012      0.24       1.9        3.81       25         OUTLET    
ZHS44            0.012      0.24       1.9        3.81       25         OUTLET    
ZHS45            0.012      0.24       1.9        3.81       25         OUTLET    

[INFILTRATION]
;;Subcatchment   MaxRate    MinRate    Decay      DryTime    MaxInfil  
;;-------------- ---------- ---------- ---------- ---------- ----------
A1               25.4       0.25       4          7          0         
A2               25.4       0.25       4          7          0         
A3               25.4       0.25       4          7          0         
A4               25.4       0.25       4          7          0         
A5               25.4       0.25       4          7          0         
A6               25.4       0.25       4          7          0         
A7               25.4       0.25       4          7          0         
A8               25.4       0.25       4          7          0         
A9               25.4       0.25       4          7          0         
A10              25.4       0.25       4          7          0         
A11              25.4       0.25       4          7          0         
A12              25.4       0.25       4          7          0         
A13              25.4       0.25       4          7          0         
A14              25.4       0.25       4          7          0         
A15              25.4       0.25       4          7          0         
A16              25.4       0.25       4          7          0         
A17              25.4       0.25       4          7          0         
A18              25.4       0.25       4          7          0         
A19              25.4       0.25       4          7          0         
A20              25.4       0.25       4          7          0         
A21              25.4       0.25       4          7          0         
A22              25.4       0.25       4          7          0         
A23              25.4       0.25       4          7          0         
A24              25.4       0.25       4          7          0         
A25              25.4       0.25       4          7          0         
A26              25.4       0.25       4          7          0         
A27              25.4       0.25       4          7          0         
A28              25.4       0.25       4          7          0         
A29              25.4       0.25       4          7          0         
A30              25.4       0.25       4          7          0         
A31              25.4       0.25       4          7          0         
A32              25.4       0.25       4          7          0         
A33              25.4       0.25       4          7          0         
A34              25.4       0.25       4          7          0         
A35              25.4       0.25       4          7          0         
A36              25.4       0.25       4          7          0         
A37              25.4       0.25       4          7          0         
A38              25.4       0.25       4          7          0         
A39              25.4       0.25       4          7          0         
A40              25.4       0.25       4          7          0         
A41              25.4       0.25       4          7          0         
A42              25.4       0.25       4          7          0         
A43              25.4       0.25       4          7          0         
A44              25.4       0.25       4          7          0         
A45              25.4       0.25       4          7          0         
A46              25.4       0.25       4          7          0         
A47              25.4       0.25       4          7          0         
A48              25.4       0.25       4          7          0         
A49              25.4       0.25       4          7          0         
A50              25.4       0.25       4          7          0         
A51              25.4       0.25       4          7          0         
A52              25.4       0.25       4          7          0         
A53              25.4       0.25       4          7          0         
A54              25.4       0.25       4          7          0         
A55              25.4       0.25       4          7          0         
A56              25.4       0.25       4          7          0         
A57              25.4       0.25       4          7          0         
A58              25.4       0.25       4          7          0         
ZHS1             25.4       0.25       4          7          0         
ZHS2             25.4       0.25       4          7          0         
ZHS3             25.4       0.25       4          7          0         
ZHS5             25.4       0.25       4          7          0         
ZHS6             25.4       0.25       4          7          0         
ZHS7             25.4       0.25       4          7          0         
ZHS8             25.4       0.25       4          7          0         
ZHS9             25.4       0.25       4          7          0         
ZHS10            25.4       0.25       4          7          0         
ZHS11            25.4       0.25       4          7          0         
ZHS12            25.4       0.25       4          7          0         
ZHS13            25.4       0.25       4          7          0         
ZHS14            25.4       0.25       4          7          0         
ZHS15            25.4       0.25       4          7          0         
ZHS16            25.4       0.25       4          7          0         
ZHS17            25.4       0.25       4          7          0         
ZHS18            25.4       0.25       4          7          0         
ZHS19            25.4       0.25       4          7          0         
ZHS20            25.4       0.25       4          7          0         
ZHS21            25.4       0.25       4          7          0         
ZHS22            25.4       0.25       4          7          0         
ZHS23            25.4       0.25       4          7          0         
ZHS24            25.4       0.25       4          7          0         
ZHS25            25.4       0.25       4          7          0         
ZHS26            25.4       0.25       4          7          0         
ZHS27            25.4       0.25       4          7          0         
ZHS28            25.4       0.25       4          7          0         
ZHS29            25.4       0.25       4          7          0         
ZHS30            25.4       0.25       4          7          0         
ZHS31            25.4       0.25       4          7          0         
ZHS32            25.4       0.25       4          7          0         
ZHS33            25.4       0.25       4          7          0         
ZHS34            25.4       0.25       4          7          0         
ZHS35            25.4       0.25       4          7          0         
ZHS36            25.4       0.25       4          7          0         
ZHS37            25.4       0.25       4          7          0         
ZHS38            25.4       0.25       4          7          0         
ZHS39            25.4       0.25       4          7          0         
ZHS40            25.4       0.25       4          7          0         
ZHS41            25.4       0.25       4          7          0         
ZHS42            25.4       0.25       4          7          0         
ZHS43            25.4       0.25       4          7          0         
ZHS44            25.4       0.25       4          7          0         
ZHS45            25.4       0.25       4          7          0         

[JUNCTIONS]
;;Name           Elevation  MaxDepth   InitDepth  SurDepth   Aponded   
;;-------------- ---------- ---------- ---------- ---------- ----------
J2               192.6      8.3        0          0          0         
J6               189.1      4          0          0          0         
J7               191.92     2.2        0          0          0         
J8               188.55     3          0          0          0         
J9               187.85     3.5        0          0          0         
J11              192.48     3.0        0          0          0         
J13              192.09     2.0        0          0          0         